data_block_1
_audit_creation_date         'Wed Jun 19 10:46:26 2019'
_audit_creation_method       'generated by GDIS v0.90'


_cell_length_a              5.1772
_cell_length_b              5.1772
_cell_length_c              5.1772
_cell_angle_alpha          90.00
_cell_angle_beta           90.00
_cell_angle_gamma          90.00


_symmetry_space_group_name_H-M   'P 1'
_symmetry_Int_Tables_number       1


loop_
_atom_site_label
_atom_site_fract_x
_atom_site_fract_y
_atom_site_fract_z
 O    0.2500    0.2500    0.2500
 O    0.7500    0.7500    0.7500
 O    0.7500    0.7500    0.2500
 O    0.2500    0.2500    0.7500
 O    0.7500    0.2500    0.7500
 O    0.2500    0.7500    0.2500
 O    0.2500    0.7500    0.7500
 O    0.7500    0.2500    0.2500
Zr    0.0000    0.0000    0.0000
Zr    0.0000    0.5000    0.5000
Zr    0.5000    0.0000    0.5000
Zr    0.5000    0.5000    0.0000


